Circuit: * C:\Users\leoar\Documents\EE2\Project\Radar\STAGES\FULL_MODEL.asc

Direct Newton iteration for .op point succeeded.

Date: Sun Jun 19 16:47:06 2022
Total elapsed time: 0.480 seconds.

tnom = 27
temp = 27
method = trap
totiter = 26
traniter = 0
tranpoints = 0
accept = 0
rejected = 0
matrix size = 251
fillins = 243
solver = Alternate
Matrix Compiler1:    1178 opcodes
Matrix Compiler2: 24.82 KB object code size
